Input Parameters:
   integrator                     = md
   tinit                          = 0
   dt                             = 0.002
   nsteps                         = 315762
   init-step                      = 0
   simulation-part                = 1
   comm-mode                      = Linear
   nstcomm                        = 100
   bd-fric                        = 0
   ld-seed                        = 478306964
   emtol                          = 10
   emstep                         = 0.01
   niter                          = 20
   fcstep                         = 0
   nstcgsteep                     = 1000
   nbfgscorr                      = 10
   rtpi                           = 0.05
   nstxout                        = 0
   nstvout                        = 0
   nstfout                        = 0
   nstlog                         = 500
   nstcalcenergy                  = 100
   nstenergy                      = 1000
   nstxout-compressed             = 500
   compressed-x-precision         = 1000
   cutoff-scheme                  = Verlet
   nstlist                        = 40
   ns-type                        = Grid
   pbc                            = xyz
   periodic-molecules             = FALSE
   verlet-buffer-tolerance        = 0.005
   rlist                          = 1.093
   rlistlong                      = 1.093
   nstcalclr                      = 10
   coulombtype                    = PME
   coulomb-modifier               = Potential-shift
   rcoulomb-switch                = 0
   rcoulomb                       = 1
   epsilon-r                      = 1
   epsilon-rf                     = inf
   vdw-type                       = Cut-off
   vdw-modifier                   = Potential-shift
   rvdw-switch                    = 0
   rvdw                           = 1
   DispCorr                       = EnerPres
   table-extension                = 1
   fourierspacing                 = 0.16
   fourier-nx                     = 25
   fourier-ny                     = 28
   fourier-nz                     = 24
   pme-order                      = 4
   ewald-rtol                     = 1e-05
   ewald-rtol-lj                  = 0.001
   lj-pme-comb-rule               = Geometric
   ewald-geometry                 = 0
   epsilon-surface                = 0
   implicit-solvent               = No
   gb-algorithm                   = Still
   nstgbradii                     = 1
   rgbradii                       = 1
   gb-epsilon-solvent             = 80
   gb-saltconc                    = 0
   gb-obc-alpha                   = 1
   gb-obc-beta                    = 0.8
   gb-obc-gamma                   = 4.85
   gb-dielectric-offset           = 0.009
   sa-algorithm                   = Ace-approximation
   sa-surface-tension             = 2.05016
   tcoupl                         = V-rescale
   nsttcouple                     = 10
   nh-chain-length                = 0
   print-nose-hoover-chain-variables = FALSE
   pcoupl                         = Parrinello-Rahman
   pcoupltype                     = Isotropic
   nstpcouple                     = 10
   tau-p                          = 2
   compressibility (3x3):
      compressibility[    0]={ 4.50000e-05,  0.00000e+00,  0.00000e+00}
      compressibility[    1]={ 0.00000e+00,  4.50000e-05,  0.00000e+00}
      compressibility[    2]={ 0.00000e+00,  0.00000e+00,  4.50000e-05}
   ref-p (3x3):
      ref-p[    0]={ 1.00000e+00,  0.00000e+00,  0.00000e+00}
      ref-p[    1]={ 0.00000e+00,  1.00000e+00,  0.00000e+00}
      ref-p[    2]={ 0.00000e+00,  0.00000e+00,  1.00000e+00}
   refcoord-scaling               = COM
   posres-com (3):
      posres-com[0]= 0.00000e+00
      posres-com[1]= 0.00000e+00
      posres-com[2]= 0.00000e+00
   posres-comB (3):
      posres-comB[0]= 0.00000e+00
      posres-comB[1]= 0.00000e+00
      posres-comB[2]= 0.00000e+00
   QMMM                           = FALSE
   QMconstraints                  = 0
   QMMMscheme                     = 0
   MMChargeScaleFactor            = 1
qm-opts:
   ngQM                           = 0
   constraint-algorithm           = Lincs
   continuation                   = TRUE
   Shake-SOR                      = FALSE
   shake-tol                      = 0.0001
   lincs-order                    = 4
   lincs-iter                     = 1
   lincs-warnangle                = 30
   nwall                          = 0
   wall-type                      = 9-3
   wall-r-linpot                  = -1
   wall-atomtype[0]               = -1
   wall-atomtype[1]               = -1
   wall-density[0]                = 0
   wall-density[1]                = 0
   wall-ewald-zfac                = 3
   pull                           = FALSE
   rotation                       = FALSE
   interactiveMD                  = FALSE
   disre                          = No
   disre-weighting                = Conservative
   disre-mixed                    = FALSE
   dr-fc                          = 1000
   dr-tau                         = 0
   nstdisreout                    = 100
   orire-fc                       = 0
   orire-tau                      = 0
   nstorireout                    = 100
   free-energy                    = no
   cos-acceleration               = 0
   deform (3x3):
      deform[    0]={ 0.00000e+00,  0.00000e+00,  0.00000e+00}
      deform[    1]={ 0.00000e+00,  0.00000e+00,  0.00000e+00}
      deform[    2]={ 0.00000e+00,  0.00000e+00,  0.00000e+00}
   simulated-tempering            = FALSE
   E-x:
      n = 0
   E-xt:
      n = 0
   E-y:
      n = 0
   E-yt:
      n = 0
   E-z:
      n = 0
   E-zt:
      n = 0
   swapcoords                     = no
   adress                         = FALSE
   userint1                       = 0
   userint2                       = 0
   userint3                       = 0
   userint4                       = 0
   userreal1                      = 0
   userreal2                      = 0
   userreal3                      = 0
   userreal4                      = 0
grpopts:
   nrdf:     551.864     11616.1
   ref-t:         300         300
   tau-t:         0.1         0.1
annealing:          No          No
annealing-npoints:           0           0
   acc:	           0           0           0
   nfreeze:           N           N           N
   energygrp-flags[  0]: 0

Using 12 OpenMP threads

2 compatible GPUs are present, with IDs 0,1
1 GPU auto-selected for this run.
Mapping of GPU ID to the 1 PP rank in this node: 0

NOTE: potentially sub-optimal launch configuration, gmx started with less
      PP process than GPUs available.
      Each PP process can use only one GPU, 1 GPU will be used.

Will do PME sum in reciprocal space for electrostatic interactions.

Will do ordinary reciprocal space Ewald sum.
Using a Gaussian width (1/beta) of 0.320163 nm for Ewald
Cut-off's:   NS: 1.093   Coulomb: 1   LJ: 1
Long Range LJ corr.: <C6> 2.9851e-04
System total charge: 0.000
Generated table with 1046 data points for Ewald.
Tabscale = 500 points/nm
Generated table with 1046 data points for LJ6.
Tabscale = 500 points/nm
Generated table with 1046 data points for LJ12.
Tabscale = 500 points/nm
Generated table with 1046 data points for 1-4 COUL.
Tabscale = 500 points/nm
Generated table with 1046 data points for 1-4 LJ6.
Tabscale = 500 points/nm
Generated table with 1046 data points for 1-4 LJ12.
Tabscale = 500 points/nm
Potential shift: LJ r^-12: -1.000e+00 r^-6: -1.000e+00, Ewald -1.000e-05
Initialized non-bonded Ewald correction tables, spacing: 9.33e-04 size: 1073

Using GPU 8x8 non-bonded kernels

Pinning threads with an auto-selected logical core stride of 1

Initializing LINear Constraint Solver

The number of constraints is 285

Center of mass motion removal mode is Linear
We have the following groups for center of mass motion removal:
  0:  rest

There are: 6088 Atoms
Initial temperature: 309.631 K

PLUMED: PLUMED is starting
PLUMED: Version: 2.3.2 (git: Unknown) compiled on Jul 25 2017 at 16:07:41
PLUMED: Please cite this paper when using PLUMED [1]
PLUMED: For further information see the PLUMED web page at http://www.plumed.org
PLUMED: Root: /home/federico/plumed-2.3.2/
PLUMED: For installed feature, see /home/federico/plumed-2.3.2//src/config/config.txt
PLUMED: Molecular dynamics engine: gromacs
PLUMED: Precision of reals: 4
PLUMED: Running over 1 node
PLUMED: Number of threads: 1
PLUMED: Cache line size: 512
PLUMED: Number of atoms: 6088
PLUMED: File suffix:
PLUMED: FILE: /home/federico/GitProjects/TS-PPTIS/testfiles/pptis10/run/plumed_fw.dat
PLUMED: Action DISTANCE
PLUMED:   with label cv
PLUMED:   between atoms 17 263
PLUMED:   using periodic boundary conditions
PLUMED: Action COMMITTOR
PLUMED:   with label @1
PLUMED:   with stride 500
PLUMED:   with arguments cv
PLUMED:   on plumed log file
PLUMED:   with format  %f
PLUMED:   BASIN 1 definition:
PLUMED:  -999.000000 - 0.550000
PLUMED:   BASIN 2 definition:
PLUMED:  1.250000 - 999.000000
PLUMED: Action PRINT
PLUMED:   with label @2
PLUMED:   with stride 500
PLUMED:   with arguments cv
PLUMED:   on file /home/federico/GitProjects/TS-PPTIS/testfiles/pptis10/run/COLVAR_FW
PLUMED:   with format  %f
PLUMED: END FILE: /home/federico/GitProjects/TS-PPTIS/testfiles/pptis10/run/plumed_fw.dat
PLUMED: Timestep: 0.002000
PLUMED: KbT: 2.494339
PLUMED: Relevant bibliography:
PLUMED:   [1] Tribello, Bonomi, Branduardi, Camilloni, and Bussi, Comput. Phys. Commun. 185, 604 (2014)
PLUMED: Please read and cite where appropriate!
PLUMED: Finished setup
Started mdrun on rank 0 Thu Feb  1 21:06:18 2018
           Step           Time         Lambda
              0        0.00000        0.00000

   Energies (kJ/mol)
          Angle    Proper Dih.  Improper Dih.          LJ-14     Coulomb-14
    5.28225e+02    9.29104e+02    5.33129e+01    3.01779e+02    4.41086e+03
        LJ (SR)  Disper. corr.   Coulomb (SR)   Coul. recip.      Potential
    1.14303e+04   -7.59255e+02   -9.79390e+04    5.04383e+02   -8.05403e+04
    Kinetic En.   Total Energy    Temperature Pres. DC (bar) Pressure (bar)
    1.58752e+04   -6.46650e+04    3.13832e+02   -2.07047e+02   -1.46702e+02
    2.96559e-05

	<====  A V E R A G E S  ====>

	Statistics over 107441 steps using 1075 frames

   Energies (kJ/mol)
          Angle    Proper Dih.  Improper Dih.          LJ-14     Coulomb-14
    5.84229e+02    9.36199e+02    3.73295e+01    3.00580e+02    4.36673e+03
        LJ (SR)  Disper. corr.   Coulomb (SR)   Coul. recip.      Potential
    1.16569e+04   -7.56825e+02   -9.79145e+04    4.88773e+02   -8.03006e+04
    Kinetic En.   Total Energy    Temperature Pres. DC (bar) Pressure (bar)
    1.51643e+04   -6.51362e+04    2.99778e+02   -2.05735e+02    1.83107e-01
   Constr. rmsd
    0.00000e+00

          Box-X          Box-Y          Box-Z
    3.97647e+00    4.27356e+00    3.59916e+00

   Total Virial (kJ/mol)
    5.04613e+03   -8.13325e+00   -2.50922e+01
   -8.09241e+00    5.05329e+03    1.32257e+01
   -2.50848e+01    1.32941e+01    5.06806e+03

   Pressure (bar)
    6.82111e+00   -1.80545e+00    1.42768e+01
   -1.82772e+00    1.12423e+00   -4.01913e+00
    1.42726e+01   -4.05644e+00   -7.39602e+00

      T-Protein  T-non-Protein
    2.98990e+02    2.99816e+02
